{
  project+: {
    fullName: "automotive.sumo",
    displayName: "Eclipse SUMO",
  },
}
