{
  project+: {
    fullName: "automotive.sumo",
    displayName: "Eclipse SUMO",
  },
  deployment+: {
    cluster: "okd-c1"
  },
}
