{
  project+: {
    fullName: "automotive.sumo",
    displayName: "Eclipse SUMO",
    resourcePacks: 2,
  },
  seLinuxLevel: "s0:c54,c39",
  storage: {
    storageClassName: "managed-nfs-storage-bambam-retain-policy",
  }
}
