{
  project+: {
    fullName: "automotive.sumo",
    displayName: "Eclipse SUMO",
    resourcePacks: 2,
  },
}
