{
  project+: {
    fullName: "technology.sumo",
    displayName: "Eclipse SUMO",
  }
}
